** Profile: "SCHEMATIC1-021"  [ I:\電工實習\1______________________作業\chapther2\021\1\021-pspicefiles\schematic1\021.sim ] 

** Creating circuit file "021.cir" 
** WARNING: THIS AUTOMATICALLY GENERATED FILE MAY BE OVERWRITTEN BY SUBSEQUENT SIMULATIONS

*Libraries: 
* Profile Libraries :
* Local Libraries :
* From [PSPICE NETLIST] section of C:\SPB_Data\cdssetup\OrCAD_PSpice\17.2.0\PSpice.ini file:
.lib "nom.lib" 

*Analysis directives: 
.TRAN  0 1m 0 50n 
.OPTIONS ADVCONV
.PROBE64 V(*) I(*) W(*) D(*) NOISE(*) 
.INC "..\SCHEMATIC1.net" 


.END
